A2
  PyMOL2.5          3D                             0

 29 31  0  0  0  0  0  0  0  0999 V2000
    6.2630    5.8810   17.7440 C   0  0  0  0  0  0  0  0  0  0  0  0
    2.4380    6.2850   18.0010 N   0  3  0  0  0  0  0  0  0  0  0  0
    3.8870    6.6370   17.5750 C   0  0  0  0  0  0  0  0  0  0  0  0
    5.4000    6.9240   15.6130 C   0  0  0  0  0  0  0  0  0  0  0  0
    5.7070    8.3430   17.6780 C   0  0  0  0  0  0  0  0  0  0  0  0
    4.8130    5.5640   18.1840 C   0  0  0  0  0  0  0  0  0  0  0  0
    6.3400    5.8520   16.2030 C   0  0  0  0  0  0  0  0  0  0  0  0
    6.6560    7.2780   18.2690 C   0  0  0  0  0  0  0  0  0  0  0  0
    3.9450    6.6130   16.0370 C   0  0  0  0  0  0  0  0  0  0  0  0
    4.2540    8.0320   18.1150 C   0  0  0  0  0  0  0  0  0  0  0  0
    5.7970    8.3190   16.1370 C   0  0  0  0  0  0  0  0  0  0  0  0
    6.9410    5.1080   18.1730 H   0  0  0  0  0  0  0  0  0  0  0  0
    5.4650    6.9090   14.5010 H   0  0  0  0  0  0  0  0  0  0  0  0
    5.9940    9.3510   18.0550 H   0  0  0  0  0  0  0  0  0  0  0  0
    4.7510    5.5540   19.2880 H   0  0  0  0  0  0  0  0  0  0  0  0
    4.5360    4.5490   17.8420 H   0  0  0  0  0  0  0  0  0  0  0  0
    7.3750    6.0280   15.8610 H   0  0  0  0  0  0  0  0  0  0  0  0
    6.0640    4.8510   15.8220 H   0  0  0  0  0  0  0  0  0  0  0  0
    7.6990    7.5160   17.9960 H   0  0  0  0  0  0  0  0  0  0  0  0
    6.6200    7.3030   19.3730 H   0  0  0  0  0  0  0  0  0  0  0  0
    3.2630    7.3600   15.5870 H   0  0  0  0  0  0  0  0  0  0  0  0
    3.6290    5.6310   15.6300 H   0  0  0  0  0  0  0  0  0  0  0  0
    3.5750    8.8200   17.7340 H   0  0  0  0  0  0  0  0  0  0  0  0
    4.1750    8.0730   19.2180 H   0  0  0  0  0  0  0  0  0  0  0  0
    5.1410    9.0940   15.7020 H   0  0  0  0  0  0  0  0  0  0  0  0
    6.8220    8.5720   15.8100 H   0  0  0  0  0  0  0  0  0  0  0  0
    2.3120    6.3790   19.0330 H   0  0  0  0  0  0  0  0  0  0  0  0
    2.2160    5.2980   17.7500 H   0  0  0  0  0  0  0  0  0  0  0  0
    1.7410    6.8920   17.5430 H   0  0  0  0  0  0  0  0  0  0  0  0
  1  6  1  0  0  0  0
  1  7  1  0  0  0  0
  1  8  1  0  0  0  0
  1 12  1  0  0  0  0
  2 27  1  0  0  0  0
  2 28  1  0  0  0  0
  2 29  1  0  0  0  0
  2  3  1  0  0  0  0
  3  6  1  0  0  0  0
  3  9  1  0  0  0  0
  3 10  1  0  0  0  0
  4  7  1  0  0  0  0
  4  9  1  0  0  0  0
  4 11  1  0  0  0  0
  4 13  1  0  0  0  0
  5  8  1  0  0  0  0
  5 10  1  0  0  0  0
  5 11  1  0  0  0  0
  5 14  1  0  0  0  0
  6 15  1  0  0  0  0
  6 16  1  0  0  0  0
  7 17  1  0  0  0  0
  7 18  1  0  0  0  0
  8 19  1  0  0  0  0
  8 20  1  0  0  0  0
  9 21  1  0  0  0  0
  9 22  1  0  0  0  0
 10 23  1  0  0  0  0
 10 24  1  0  0  0  0
 11 25  1  0  0  0  0
 11 26  1  0  0  0  0
M  END
$$$$
