CUC
  PyMOL2.5          3D                             0

126147  0  0  0  0  0  0  0  0999 V2000
    4.2530    9.4060   13.0470 C   0  0  0  0  0  0  0  0  0  0  0  0
    5.0540   10.5700   13.1330 N   0  0  0  0  0  0  0  0  0  0  0  0
    8.8710    8.3260   13.9730 O   0  0  0  0  0  0  0  0  0  0  0  0
    7.9800    8.8160   13.2990 C   0  0  0  0  0  0  0  0  0  0  0  0
    7.4900   10.1420   13.4020 N   0  0  0  0  0  0  0  0  0  0  0  0
    3.1830    9.2230   13.6010 O   0  0  0  0  0  0  0  0  0  0  0  0
    6.3670   10.4050   12.4620 C   0  0  0  0  0  0  0  0  0  0  0  0
    4.8610    8.5480   12.1000 N   0  0  0  0  0  0  0  0  0  0  0  0
    2.7010    5.8190   13.4290 O   0  0  0  0  0  0  0  0  0  0  0  0
    6.2060    9.0230   11.6810 C   0  0  0  0  0  0  0  0  0  0  0  0
    7.3190    8.1990   12.2110 N   0  0  0  0  0  0  0  0  0  0  0  0
    8.4110    4.9170   13.7080 O   0  0  0  0  0  0  0  0  0  0  0  0
    4.1450    7.4610   11.4080 C   0  0  0  0  0  0  0  0  0  0  0  0
    4.4780    6.1210   11.9190 N   0  0  0  0  0  0  0  0  0  0  0  0
    9.0390   10.3480   16.7940 O   0  0  0  0  0  0  0  0  0  0  0  0
    7.7240    6.9140   11.6160 C   0  0  0  0  0  0  0  0  0  0  0  0
    6.9320    5.7630   12.0880 N   0  0  0  0  0  0  0  0  0  0  0  0
    2.1800    3.5330   15.9790 O   0  0  0  0  0  0  0  0  0  0  0  0
    3.6760    5.3960   12.8300 C   0  0  0  0  0  0  0  0  0  0  0  0
    4.1480    4.0600   12.8430 N   0  0  0  0  0  0  0  0  0  0  0  0
    7.8990    2.6860   16.2890 O   0  0  0  0  0  0  0  0  0  0  0  0
    7.4150    4.8070   13.0130 C   0  0  0  0  0  0  0  0  0  0  0  0
    6.6010    3.6550   12.8930 N   0  0  0  0  0  0  0  0  0  0  0  0
    2.1020    4.1270   19.3890 O   0  0  0  0  0  0  0  0  0  0  0  0
    5.6550    5.3470   11.4520 C   0  0  0  0  0  0  0  0  0  0  0  0
    3.7380    2.4040   14.6240 N   0  0  0  0  0  0  0  0  0  0  0  0
    7.8060    3.2700   19.6960 O   0  0  0  0  0  0  0  0  0  0  0  0
    5.3990    3.8920   12.0560 C   0  0  0  0  0  0  0  0  0  0  0  0
    6.2020    2.1050   14.7690 N   0  0  0  0  0  0  0  0  0  0  0  0
    2.4160    7.1060   21.0980 O   0  0  0  0  0  0  0  0  0  0  0  0
    3.3370    2.9190   13.3040 C   0  0  0  0  0  0  0  0  0  0  0  0
    3.5670    1.8350   16.8270 N   0  0  0  0  0  0  0  0  0  0  0  0
    8.1480    6.2820   21.3750 O   0  0  0  0  0  0  0  0  0  0  0  0
    6.9160    2.3530   13.5030 C   0  0  0  0  0  0  0  0  0  0  0  0
    6.0170    1.4400   16.9450 N   0  0  0  0  0  0  0  0  0  0  0  0
    3.0090   10.2180   19.7360 O   0  0  0  0  0  0  0  0  0  0  0  0
    3.0780    2.7200   15.8360 C   0  0  0  0  0  0  0  0  0  0  0  0
    3.4780    2.2250   19.2610 N   0  0  0  0  0  0  0  0  0  0  0  0
    8.7100    9.4390   20.1100 O   0  0  0  0  0  0  0  0  0  0  0  0
    6.8220    2.1700   16.0400 C   0  0  0  0  0  0  0  0  0  0  0  0
    5.9370    1.8800   19.3710 N   0  0  0  0  0  0  0  0  0  0  0  0
    3.3200   11.1800   16.4320 O   0  0  0  0  0  0  0  0  0  0  0  0
    4.8650    1.4580   14.8210 C   0  0  0  0  0  0  0  0  0  0  0  0
    3.6000    3.5570   21.1090 N   0  0  0  0  0  0  0  0  0  0  0  0
    4.7200    1.0280   16.3510 C   0  0  0  0  0  0  0  0  0  0  0  0
    6.0500    3.1560   21.2580 N   0  0  0  0  0  0  0  0  0  0  0  0
    2.8690    1.5620   18.0960 C   0  0  0  0  0  0  0  0  0  0  0  0
    3.8100    5.6810   22.3440 N   0  0  0  0  0  0  0  0  0  0  0  0
    6.4560    1.0250   18.2880 C   0  0  0  0  0  0  0  0  0  0  0  0
    6.2680    5.3240   22.4120 N   0  0  0  0  0  0  0  0  0  0  0  0
    2.9770    3.4120   19.8470 C   0  0  0  0  0  0  0  0  0  0  0  0
    4.1530    7.9330   22.4480 N   0  0  0  0  0  0  0  0  0  0  0  0
    6.7150    2.8510   20.0460 C   0  0  0  0  0  0  0  0  0  0  0  0
    6.6080    7.5730   22.5950 N   0  0  0  0  0  0  0  0  0  0  0  0
    4.6200    1.6530   20.0180 C   0  0  0  0  0  0  0  0  0  0  0  0
    4.5350   10.1900   21.5250 N   0  0  0  0  0  0  0  0  0  0  0  0
    4.6890    2.5690   21.3250 C   0  0  0  0  0  0  0  0  0  0  0  0
    6.9910    9.8240   21.6680 N   0  0  0  0  0  0  0  0  0  0  0  0
    3.0750    4.4150   22.1860 C   0  0  0  0  0  0  0  0  0  0  0  0
    4.8860   11.6320   19.7890 N   0  0  0  0  0  0  0  0  0  0  0  0
    6.6640    3.9040   22.3670 C   0  0  0  0  0  0  0  0  0  0  0  0
    7.3460   11.3540   20.0170 N   0  0  0  0  0  0  0  0  0  0  0  0
    3.3660    6.9260   21.8400 C   0  0  0  0  0  0  0  0  0  0  0  0
    5.0710   12.3810   17.4420 N   0  0  0  0  0  0  0  0  0  0  0  0
    7.1170    6.3860   22.0190 C   0  0  0  0  0  0  0  0  0  0  0  0
    7.5070   11.9250   17.6260 N   0  0  0  0  0  0  0  0  0  0  0  0
    5.0600    5.7980   23.1360 C   0  0  0  0  0  0  0  0  0  0  0  0
    5.2080   11.8770   15.2170 N   0  0  0  0  0  0  0  0  0  0  0  0
    5.2840    7.3750   23.2350 C   0  0  0  0  0  0  0  0  0  0  0  0
    7.6760   11.6300   15.3670 N   0  0  0  0  0  0  0  0  0  0  0  0
    3.7820    9.3590   22.4800 C   0  0  0  0  0  0  0  0  0  0  0  0
    7.3640    8.8330   22.6920 C   0  0  0  0  0  0  0  0  0  0  0  0
    4.0340   10.6080   20.2700 C   0  0  0  0  0  0  0  0  0  0  0  0
    7.7720   10.1010   20.5210 C   0  0  0  0  0  0  0  0  0  0  0  0
    5.8630   10.7770   21.8340 C   0  0  0  0  0  0  0  0  0  0  0  0
    6.0860   11.8210   20.6470 C   0  0  0  0  0  0  0  0  0  0  0  0
    4.4760   12.6150   18.7680 C   0  0  0  0  0  0  0  0  0  0  0  0
    8.0640   12.1110   18.9800 C   0  0  0  0  0  0  0  0  0  0  0  0
    4.4130   11.7170   16.3800 C   0  0  0  0  0  0  0  0  0  0  0  0
    8.1570   11.1710   16.6170 C   0  0  0  0  0  0  0  0  0  0  0  0
    6.4440   12.8090   17.0780 C   0  0  0  0  0  0  0  0  0  0  0  0
    6.5100   12.5360   15.5070 C   0  0  0  0  0  0  0  0  0  0  0  0
    4.6590   11.7930   13.8500 C   0  0  0  0  0  0  0  0  0  0  0  0
    8.2370   11.2270   14.0660 C   0  0  0  0  0  0  0  0  0  0  0  0
    6.5820   11.2870   11.8030 H   0  0  0  0  0  0  0  0  0  0  0  0
    6.2760    9.1090   10.5650 H   0  0  0  0  0  0  0  0  0  0  0  0
    3.0370    7.6220   11.5360 H   0  0  0  0  0  0  0  0  0  0  0  0
    4.4030    7.4950   10.3150 H   0  0  0  0  0  0  0  0  0  0  0  0
    8.8060    6.7330   11.8710 H   0  0  0  0  0  0  0  0  0  0  0  0
    7.6110    6.9950   10.5000 H   0  0  0  0  0  0  0  0  0  0  0  0
    5.7300    5.3790   10.3340 H   0  0  0  0  0  0  0  0  0  0  0  0
    5.2900    3.0850   11.2860 H   0  0  0  0  0  0  0  0  0  0  0  0
    3.4310    2.0820   12.5600 H   0  0  0  0  0  0  0  0  0  0  0  0
    2.2600    3.2440   13.3670 H   0  0  0  0  0  0  0  0  0  0  0  0
    6.6440    1.5470   12.7690 H   0  0  0  0  0  0  0  0  0  0  0  0
    8.0240    2.3200   13.7030 H   0  0  0  0  0  0  0  0  0  0  0  0
    4.7960    0.6080   14.0940 H   0  0  0  0  0  0  0  0  0  0  0  0
    4.5420   -0.0670   16.5090 H   0  0  0  0  0  0  0  0  0  0  0  0
    2.8750    0.4520   18.2790 H   0  0  0  0  0  0  0  0  0  0  0  0
    1.8050    1.9200   18.0030 H   0  0  0  0  0  0  0  0  0  0  0  0
    7.5820    1.0570   18.3170 H   0  0  0  0  0  0  0  0  0  0  0  0
    6.1070   -0.0290   18.4640 H   0  0  0  0  0  0  0  0  0  0  0  0
    4.4540    0.5640   20.2250 H   0  0  0  0  0  0  0  0  0  0  0  0
    4.5460    2.0140   22.2880 H   0  0  0  0  0  0  0  0  0  0  0  0
    1.9990    4.6580   21.9580 H   0  0  0  0  0  0  0  0  0  0  0  0
    3.1340    3.8510   23.1570 H   0  0  0  0  0  0  0  0  0  0  0  0
    6.3610    3.4150   23.3330 H   0  0  0  0  0  0  0  0  0  0  0  0
    7.7830    3.8470   22.2540 H   0  0  0  0  0  0  0  0  0  0  0  0
    4.9530    5.2830   24.1260 H   0  0  0  0  0  0  0  0  0  0  0  0
    5.2820    7.7770   24.2820 H   0  0  0  0  0  0  0  0  0  0  0  0
    2.6860    9.4470   22.2380 H   0  0  0  0  0  0  0  0  0  0  0  0
    3.9700    9.7540   23.5150 H   0  0  0  0  0  0  0  0  0  0  0  0
    7.1810    9.2780   23.7080 H   0  0  0  0  0  0  0  0  0  0  0  0
    8.4600    8.5980   22.5790 H   0  0  0  0  0  0  0  0  0  0  0  0
    5.8680   11.2300   22.8590 H   0  0  0  0  0  0  0  0  0  0  0  0
    6.1850   12.8860   20.9810 H   0  0  0  0  0  0  0  0  0  0  0  0
    3.3550   12.5740   18.6590 H   0  0  0  0  0  0  0  0  0  0  0  0
    4.7800   13.6420   19.1090 H   0  0  0  0  0  0  0  0  0  0  0  0
    9.1380   11.7730   18.9800 H   0  0  0  0  0  0  0  0  0  0  0  0
    8.0160   13.2020   19.2480 H   0  0  0  0  0  0  0  0  0  0  0  0
    6.6100   13.8800   17.3680 H   0  0  0  0  0  0  0  0  0  0  0  0
    6.6530   13.4570   14.8840 H   0  0  0  0  0  0  0  0  0  0  0  0
    3.5340   11.8150   13.9070 H   0  0  0  0  0  0  0  0  0  0  0  0
    5.0180   12.6760   13.2550 H   0  0  0  0  0  0  0  0  0  0  0  0
    8.2410   12.1310   13.3980 H   0  0  0  0  0  0  0  0  0  0  0  0
    9.2970   10.8850   14.2370 H   0  0  0  0  0  0  0  0  0  0  0  0
  1  6  2  0  0  0  0
  1  2  1  0  0  0  0
  2  7  1  0  0  0  0
  2 83  1  0  0  0  0
  3  4  2  0  0  0  0
  4  5  1  0  0  0  0
  5  7  1  0  0  0  0
  5 84  1  0  0  0  0
  7 10  1  0  0  0  0
  7 85  1  0  0  0  0
  1  8  1  0  0  0  0
  8 10  1  0  0  0  0
  8 13  1  0  0  0  0
 10 86  1  0  0  0  0
  4 11  1  0  0  0  0
 10 11  1  0  0  0  0
 11 16  1  0  0  0  0
 13 87  1  0  0  0  0
 13 88  1  0  0  0  0
 13 14  1  0  0  0  0
 14 19  1  0  0  0  0
 14 25  1  0  0  0  0
 16 89  1  0  0  0  0
 16 90  1  0  0  0  0
 16 17  1  0  0  0  0
 17 22  1  0  0  0  0
 17 25  1  0  0  0  0
  9 19  2  0  0  0  0
 19 20  1  0  0  0  0
 20 28  1  0  0  0  0
 20 31  1  0  0  0  0
 12 22  2  0  0  0  0
 22 23  1  0  0  0  0
 23 28  1  0  0  0  0
 23 34  1  0  0  0  0
 25 28  1  0  0  0  0
 25 91  1  0  0  0  0
 26 31  1  0  0  0  0
 26 37  1  0  0  0  0
 26 43  1  0  0  0  0
 28 92  1  0  0  0  0
 29 34  1  0  0  0  0
 29 40  1  0  0  0  0
 29 43  1  0  0  0  0
 31 93  1  0  0  0  0
 31 94  1  0  0  0  0
 32 37  1  0  0  0  0
 32 45  1  0  0  0  0
 32 47  1  0  0  0  0
 34 95  1  0  0  0  0
 34 96  1  0  0  0  0
 35 40  1  0  0  0  0
 35 45  1  0  0  0  0
 35 49  1  0  0  0  0
 18 37  2  0  0  0  0
 38 47  1  0  0  0  0
 38 51  1  0  0  0  0
 38 55  1  0  0  0  0
 21 40  2  0  0  0  0
 41 49  1  0  0  0  0
 41 53  1  0  0  0  0
 41 55  1  0  0  0  0
 43 45  1  0  0  0  0
 43 97  1  0  0  0  0
 44 51  1  0  0  0  0
 44 57  1  0  0  0  0
 44 59  1  0  0  0  0
 45 98  1  0  0  0  0
 46 53  1  0  0  0  0
 46 57  1  0  0  0  0
 46 61  1  0  0  0  0
 47 99  1  0  0  0  0
 47100  1  0  0  0  0
 48 59  1  0  0  0  0
 48 63  1  0  0  0  0
 48 67  1  0  0  0  0
 49101  1  0  0  0  0
 49102  1  0  0  0  0
 50 61  1  0  0  0  0
 50 65  1  0  0  0  0
 50 67  1  0  0  0  0
 24 51  2  0  0  0  0
 52 63  1  0  0  0  0
 52 69  1  0  0  0  0
 52 71  1  0  0  0  0
 27 53  2  0  0  0  0
 54 65  1  0  0  0  0
 54 69  1  0  0  0  0
 54 72  1  0  0  0  0
 55 57  1  0  0  0  0
 55103  1  0  0  0  0
 56 71  1  0  0  0  0
 56 73  1  0  0  0  0
 56 75  1  0  0  0  0
 57104  1  0  0  0  0
 58 72  1  0  0  0  0
 58 74  1  0  0  0  0
 58 75  1  0  0  0  0
 59105  1  0  0  0  0
 59106  1  0  0  0  0
 60 73  1  0  0  0  0
 60 76  1  0  0  0  0
 60 77  1  0  0  0  0
 61107  1  0  0  0  0
 61108  1  0  0  0  0
 62 74  1  0  0  0  0
 62 76  1  0  0  0  0
 62 78  1  0  0  0  0
 30 63  2  0  0  0  0
 64 77  1  0  0  0  0
 64 79  1  0  0  0  0
 64 81  1  0  0  0  0
 33 65  2  0  0  0  0
 66 78  1  0  0  0  0
 66 80  1  0  0  0  0
 66 81  1  0  0  0  0
 67 69  1  0  0  0  0
 67109  1  0  0  0  0
 68 79  1  0  0  0  0
 68 82  1  0  0  0  0
 68 83  1  0  0  0  0
 69110  1  0  0  0  0
 70 80  1  0  0  0  0
 70 82  1  0  0  0  0
 70 84  1  0  0  0  0
 71111  1  0  0  0  0
 71112  1  0  0  0  0
 72113  1  0  0  0  0
 72114  1  0  0  0  0
 36 73  2  0  0  0  0
 39 74  2  0  0  0  0
 75 76  1  0  0  0  0
 75115  1  0  0  0  0
 76116  1  0  0  0  0
 77117  1  0  0  0  0
 77118  1  0  0  0  0
 78119  1  0  0  0  0
 78120  1  0  0  0  0
 42 79  2  0  0  0  0
 15 80  2  0  0  0  0
 81 82  1  0  0  0  0
 81121  1  0  0  0  0
 82122  1  0  0  0  0
 83123  1  0  0  0  0
 83124  1  0  0  0  0
 84125  1  0  0  0  0
 84126  1  0  0  0  0
M  END
$$$$
